data/complex_grid/grid.xiidm
<?xml version="1.0" encoding="UTF-8"?>
<iidm:network xmlns:iidm="http://www.powsybl.org/schema/iidm/1_17" xmlns:cp="http://www.powsybl.org/schema/iidm/ext/connectable_position/1_1" xmlns:bbsp="http://www.itesla_project.eu/schema/iidm/ext/busbarsectionposition/1_0" xmlns:reft="http://www.powsybl.org/schema/iidm/ext/reference_terminals/1_0" xmlns:slt="http://www.powsybl.org/schema/iidm/ext/slack_terminal/1_5" id="TESTGRID_NODE_BREAKER_HVDC_BAT_SVC_3W_TRAFO" caseDate="2026-10-01T08:36:32.501Z" forecastDistance="0" sourceFormat="" minimumValidationLevel="STEADY_STATE_HYPOTHESIS">
    <iidm:substation id="S_3W" name="S_3W" country="BE" tso="TSO">
        <iidm:voltageLevel id="VL_3W_HV" name="VL_3W_HV" nominalV="380.0" topologyKind="NODE_BREAKER">
            <iidm:nodeBreakerTopology>
                <iidm:busbarSection id="VL_3W_HV_1_1" node="0"/>
                <iidm:busbarSection id="VL_3W_HV_2_1" node="1"/>
                <iidm:busbarSection id="VL_3W_HV_1_2" node="2"/>
                <iidm:busbarSection id="VL_3W_HV_2_2" node="3"/>
                <iidm:switch id="VL_3W_HV_DISCONNECTOR_0_4" kind="DISCONNECTOR" open="false" node1="0" node2="4"/>
                <iidm:switch id="VL_3W_HV_BREAKER_1_1" kind="BREAKER" retained="true" open="false" node1="4" node2="5"/>
                <iidm:switch id="VL_3W_HV_DISCONNECTOR_5_2" kind="DISCONNECTOR" open="false" node1="5" node2="2"/>
                <iidm:switch id="VL_3W_HV_DISCONNECTOR_1_6" kind="DISCONNECTOR" open="false" node1="1" node2="6"/>
                <iidm:switch id="VL_3W_HV_BREAKER_2_1" kind="BREAKER" retained="true" open="false" node1="6" node2="7"/>
                <iidm:switch id="VL_3W_HV_DISCONNECTOR_7_3" kind="DISCONNECTOR" open="false" node1="7" node2="3"/>
                <iidm:switch id="VL_3W_HV_BREAKER" kind="BREAKER" retained="true" open="false" node1="8" node2="9"/>
                <iidm:switch id="VL_3W_HV_DISCONNECTOR_8_0" kind="DISCONNECTOR" open="false" node1="8" node2="0"/>
                <iidm:switch id="VL_3W_HV_DISCONNECTOR_9_1" kind="DISCONNECTOR" open="false" node1="9" node2="1"/>
                <iidm:switch id="L161_BREAKER" kind="BREAKER" retained="true" open="false" node1="10" node2="11"/>
                <iidm:switch id="L161_DISCONNECTOR_11_0" kind="DISCONNECTOR" open="false" node1="11" node2="0"/>
                <iidm:switch id="L161_DISCONNECTOR_11_1" kind="DISCONNECTOR" open="true" node1="11" node2="1"/>
                <iidm:switch id="L171_BREAKER" kind="BREAKER" retained="true" open="false" node1="12" node2="13"/>
                <iidm:switch id="L171_DISCONNECTOR_13_0" kind="DISCONNECTOR" open="true" node1="13" node2="0"/>
                <iidm:switch id="L171_DISCONNECTOR_13_1" kind="DISCONNECTOR" open="false" node1="13" node2="1"/>
                <iidm:switch id="L201_BREAKER" kind="BREAKER" retained="true" open="false" node1="14" node2="15"/>
                <iidm:switch id="L201_DISCONNECTOR_15_0" kind="DISCONNECTOR" open="false" node1="15" node2="0"/>
                <iidm:switch id="L201_DISCONNECTOR_15_1" kind="DISCONNECTOR" open="true" node1="15" node2="1"/>
                <iidm:switch id="L211_BREAKER" kind="BREAKER" retained="true" open="false" node1="16" node2="17"/>
                <iidm:switch id="L211_DISCONNECTOR_17_0" kind="DISCONNECTOR" open="true" node1="17" node2="0"/>
                <iidm:switch id="L211_DISCONNECTOR_17_1" kind="DISCONNECTOR" open="false" node1="17" node2="1"/>
                <iidm:switch id="2W_3W_MV_HV1_BREAKER" kind="BREAKER" retained="true" open="false" node1="18" node2="19"/>
                <iidm:switch id="2W_3W_MV_HV1_DISCONNECTOR_19_0" kind="DISCONNECTOR" open="false" node1="19" node2="0"/>
                <iidm:switch id="2W_3W_MV_HV1_DISCONNECTOR_19_1" kind="DISCONNECTOR" open="true" node1="19" node2="1"/>
                <iidm:switch id="BREAKER_3W_HV" kind="BREAKER" open="false" node1="30" node2="31"/>
                <iidm:switch id="DISCONNECTOR_3W_HV_1" kind="DISCONNECTOR" open="false" node1="0" node2="31"/>
                <iidm:switch id="DISCONNECTOR_3W_HV_2" kind="DISCONNECTOR" open="true" node1="1" node2="31"/>
                <iidm:switch id="LCC1_BREAKER" kind="BREAKER" retained="true" open="false" node1="32" node2="33"/>
                <iidm:switch id="LCC1_DISCONNECTOR_33_0" kind="DISCONNECTOR" open="false" node1="33" node2="0"/>
                <iidm:switch id="LCC1_DISCONNECTOR_33_1" kind="DISCONNECTOR" open="true" node1="33" node2="1"/>
                <iidm:switch id="Dangling_outbound_BREAKER" kind="BREAKER" retained="true" open="false" node1="34" node2="35"/>
                <iidm:switch id="Dangling_outbound_DISCONNECTOR_35_0" kind="DISCONNECTOR" open="false" node1="35" node2="0"/>
                <iidm:switch id="Dangling_outbound_DISCONNECTOR_35_1" kind="DISCONNECTOR" open="true" node1="35" node2="1"/>
                <iidm:bus v="378.2501902138813" angle="-1.9080902866152518" nodes="0,1,2,3,4,5,6,7,8,9,10,11,12,13,14,15,16,17,18,19,30,31,32,33,34,35"/>
            </iidm:nodeBreakerTopology>
            <iidm:boundaryLine id="Dangling_outbound" name="Dangling outbound" p0="300.0" q0="100.0" r="1.0" x="15.0" b="1.108E-6" node="34" p="301.47869582323585" q="121.87209531785248" selectedOperationalLimitsGroupIds="DEFAULT">
                <iidm:operationalLimitsGroup id="DEFAULT">
                    <iidm:currentLimits permanentLimit="400.0"/>
                </iidm:operationalLimitsGroup>
            </iidm:boundaryLine>
            <iidm:lccConverterStation id="LCC1" name="LCC station A" lossFactor="1.0" powerFactor="0.98" node="32" p="75.0" q="15.229392062552188"/>
        </iidm:voltageLevel>
        <iidm:voltageLevel id="VL_3W_MV" name="VL_3W_MV" nominalV="110.0" topologyKind="NODE_BREAKER">
            <iidm:nodeBreakerTopology>
                <iidm:busbarSection id="VL_3W_MV_1_1" node="0"/>
                <iidm:busbarSection id="VL_3W_MV_2_1" node="1"/>
                <iidm:switch id="VL_3W_MV_BREAKER" kind="BREAKER" retained="true" open="false" node1="2" node2="3"/>
                <iidm:switch id="VL_3W_MV_DISCONNECTOR_2_0" kind="DISCONNECTOR" open="false" node1="2" node2="0"/>
                <iidm:switch id="VL_3W_MV_DISCONNECTOR_3_1" kind="DISCONNECTOR" open="false" node1="3" node2="1"/>
                <iidm:switch id="L32_BREAKER" kind="BREAKER" retained="true" open="false" node1="4" node2="5"/>
                <iidm:switch id="L32_DISCONNECTOR_5_0" kind="DISCONNECTOR" open="false" node1="5" node2="0"/>
                <iidm:switch id="L32_DISCONNECTOR_5_1" kind="DISCONNECTOR" open="true" node1="5" node2="1"/>
                <iidm:switch id="L52_BREAKER" kind="BREAKER" retained="true" open="false" node1="6" node2="7"/>
                <iidm:switch id="L52_DISCONNECTOR_7_0" kind="DISCONNECTOR" open="false" node1="7" node2="0"/>
                <iidm:switch id="L52_DISCONNECTOR_7_1" kind="DISCONNECTOR" open="true" node1="7" node2="1"/>
                <iidm:switch id="L112_BREAKER" kind="BREAKER" retained="true" open="false" node1="8" node2="9"/>
                <iidm:switch id="L112_DISCONNECTOR_9_0" kind="DISCONNECTOR" open="false" node1="9" node2="0"/>
                <iidm:switch id="L112_DISCONNECTOR_9_1" kind="DISCONNECTOR" open="true" node1="9" node2="1"/>
                <iidm:switch id="L122_BREAKER" kind="BREAKER" retained="true" open="false" node1="10" node2="11"/>
                <iidm:switch id="L122_DISCONNECTOR_11_0" kind="DISCONNECTOR" open="false" node1="11" node2="0"/>
                <iidm:switch id="L122_DISCONNECTOR_11_1" kind="DISCONNECTOR" open="true" node1="11" node2="1"/>
                <iidm:switch id="2W_3W_MV_HV2_BREAKER" kind="BREAKER" retained="true" open="false" node1="12" node2="13"/>
                <iidm:switch id="2W_3W_MV_HV2_DISCONNECTOR_13_0" kind="DISCONNECTOR" open="false" node1="13" node2="0"/>
                <iidm:switch id="2W_3W_MV_HV2_DISCONNECTOR_13_1" kind="DISCONNECTOR" open="true" node1="13" node2="1"/>
                <iidm:switch id="BREAKER_3W_MV" kind="BREAKER" open="false" node1="30" node2="31"/>
                <iidm:switch id="DISCONNECTOR_3W_MV_1" kind="DISCONNECTOR" open="false" node1="0" node2="31"/>
                <iidm:switch id="DISCONNECTOR_3W_MV_2" kind="DISCONNECTOR" open="false" node1="1" node2="31"/>
                <iidm:bus v="109.48770964755217" angle="-1.946177272270732" nodes="0,1,2,3,4,5,6,7,8,9,10,11,12,13,30,31"/>
            </iidm:nodeBreakerTopology>
        </iidm:voltageLevel>
        <iidm:voltageLevel id="VL_3W_LV" name="VL_3W_LV" nominalV="63.0" topologyKind="NODE_BREAKER">
            <iidm:nodeBreakerTopology>
                <iidm:busbarSection id="VL_3W_LV_1_1" node="0"/>
                <iidm:busbarSection id="VL_3W_LV_1_2" node="1"/>
                <iidm:switch id="VL_3W_LV_DISCONNECTOR_0_2" kind="DISCONNECTOR" open="false" node1="0" node2="2"/>
                <iidm:switch id="VL_3W_LV_BREAKER_1_1" kind="BREAKER" retained="true" open="false" node1="2" node2="3"/>
                <iidm:switch id="VL_3W_LV_DISCONNECTOR_3_1" kind="DISCONNECTOR" open="false" node1="3" node2="1"/>
                <iidm:switch id="L11_BREAKER" kind="BREAKER" retained="true" open="false" node1="4" node2="5"/>
                <iidm:switch id="L11_DISCONNECTOR_5_0" kind="DISCONNECTOR" open="false" node1="5" node2="0"/>
                <iidm:switch id="BREAKER_3W_LV" kind="BREAKER" open="false" node1="30" node2="31"/>
                <iidm:switch id="DISCONNECTOR_3W_LV_1" kind="DISCONNECTOR" open="false" node1="0" node2="31"/>
                <iidm:switch id="load_3W_LV_BREAKER" kind="BREAKER" retained="true" open="false" node1="32" node2="33"/>
                <iidm:switch id="load_3W_LV_DISCONNECTOR_33_0" kind="DISCONNECTOR" open="false" node1="33" node2="0"/>
                <iidm:bus v="62.70429318836503" angle="-1.9342593224128113" nodes="0,1,2,3,4,5,30,31,32,33"/>
            </iidm:nodeBreakerTopology>
            <iidm:load id="load_3W_LV" name="LV local load 2" loadType="UNDEFINED" p0="25.0" q0="8.0" node="32" p="25.0" q="8.0"/>
        </iidm:voltageLevel>
        <iidm:twoWindingsTransformer id="2W_3W_MV_HV" r="0.004" x="0.12" ratedU1="380.0" ratedU2="110.0" voltageLevelId1="VL_3W_HV" node1="18" voltageLevelId2="VL_3W_MV" node2="12" p1="66.51112379078268" q1="3.0666226103387535" p2="-66.50964470167325" q2="-3.022249937024298" selectedOperationalLimitsGroupIds1="DEFAULT">
            <iidm:operationalLimitsGroup1 id="DEFAULT">
                <iidm:currentLimits permanentLimit="200.0"/>
            </iidm:operationalLimitsGroup1>
        </iidm:twoWindingsTransformer>
        <iidm:threeWindingsTransformer id="3W" name="3W 380/110/63" r1="0.005" x1="0.15" ratedU1="380.0" r2="0.005" x2="0.15" ratedU2="110.0" r3="0.006" x3="0.18" ratedU3="63.0" ratedU0="380.0" voltageLevelId1="VL_3W_HV" node1="30" voltageLevelId2="VL_3W_MV" node2="30" voltageLevelId3="VL_3W_LV" node3="30" p1="352.9268775830402" q1="31.15081950845732" p2="-282.0458046854781" q2="2.0608338117285743" p3="-70.87364924543446" q3="-32.98894375628433">
            <iidm:property name="v" value="378.2331974389711"/>
            <iidm:property name="angle" value="-1.929229080151135"/>
        </iidm:threeWindingsTransformer>
    </iidm:substation>
    <iidm:substation id="S_2W_MV_LV" name="S_2W_MV_LV" country="BE" tso="TSO">
        <iidm:voltageLevel id="VL_2W_MV_LV_MV" name="VL_2W_MV_LV_MV" nominalV="110.0" topologyKind="NODE_BREAKER">
            <iidm:nodeBreakerTopology>
                <iidm:busbarSection id="VL_2W_MV_LV_MV_1_1" node="0"/>
                <iidm:busbarSection id="VL_2W_MV_LV_MV_2_1" node="1"/>
                <iidm:switch id="VL_2W_MV_LV_MV_BREAKER" kind="BREAKER" retained="true" open="false" node1="2" node2="3"/>
                <iidm:switch id="VL_2W_MV_LV_MV_DISCONNECTOR_2_0" kind="DISCONNECTOR" open="false" node1="2" node2="0"/>
                <iidm:switch id="VL_2W_MV_LV_MV_DISCONNECTOR_3_1" kind="DISCONNECTOR" open="false" node1="3" node2="1"/>
                <iidm:switch id="L51_BREAKER" kind="BREAKER" retained="true" open="false" node1="4" node2="5"/>
                <iidm:switch id="L51_DISCONNECTOR_5_0" kind="DISCONNECTOR" open="false" node1="5" node2="0"/>
                <iidm:switch id="L51_DISCONNECTOR_5_1" kind="DISCONNECTOR" open="true" node1="5" node2="1"/>
                <iidm:switch id="L102_BREAKER" kind="BREAKER" retained="true" open="false" node1="6" node2="7"/>
                <iidm:switch id="L102_DISCONNECTOR_7_0" kind="DISCONNECTOR" open="false" node1="7" node2="0"/>
                <iidm:switch id="L102_DISCONNECTOR_7_1" kind="DISCONNECTOR" open="true" node1="7" node2="1"/>
                <iidm:switch id="L132_BREAKER" kind="BREAKER" retained="true" open="false" node1="8" node2="9"/>
                <iidm:switch id="L132_DISCONNECTOR_9_0" kind="DISCONNECTOR" open="false" node1="9" node2="0"/>
                <iidm:switch id="L132_DISCONNECTOR_9_1" kind="DISCONNECTOR" open="true" node1="9" node2="1"/>
                <iidm:switch id="2W_MV_LV1_BREAKER" kind="BREAKER" retained="true" open="false" node1="10" node2="11"/>
                <iidm:switch id="2W_MV_LV1_DISCONNECTOR_11_0" kind="DISCONNECTOR" open="false" node1="11" node2="0"/>
                <iidm:switch id="2W_MV_LV1_DISCONNECTOR_11_1" kind="DISCONNECTOR" open="true" node1="11" node2="1"/>
                <iidm:bus v="106.84645299040866" angle="-4.246230929339933" nodes="0,1,2,3,4,5,6,7,8,9,10,11"/>
            </iidm:nodeBreakerTopology>
        </iidm:voltageLevel>
        <iidm:voltageLevel id="VL_2W_MV_LV_LV" name="VL_2W_MV_LV_LV" nominalV="63.0" topologyKind="NODE_BREAKER">
            <iidm:nodeBreakerTopology>
                <iidm:busbarSection id="VL_2W_MV_LV_LV_1_1" node="0"/>
                <iidm:busbarSection id="VL_2W_MV_LV_LV_1_2" node="1"/>
                <iidm:switch id="VL_2W_MV_LV_LV_DISCONNECTOR_0_2" kind="DISCONNECTOR" open="false" node1="0" node2="2"/>
                <iidm:switch id="VL_2W_MV_LV_LV_BREAKER_1_1" kind="BREAKER" retained="true" open="false" node1="2" node2="3"/>
                <iidm:switch id="VL_2W_MV_LV_LV_DISCONNECTOR_3_1" kind="DISCONNECTOR" open="false" node1="3" node2="1"/>
                <iidm:switch id="L21_BREAKER" kind="BREAKER" retained="true" open="false" node1="4" node2="5"/>
                <iidm:switch id="L21_DISCONNECTOR_5_0" kind="DISCONNECTOR" open="false" node1="5" node2="0"/>
                <iidm:switch id="2W_MV_LV2_BREAKER" kind="BREAKER" retained="true" open="false" node1="6" node2="7"/>
                <iidm:switch id="2W_MV_LV2_DISCONNECTOR_7_0" kind="DISCONNECTOR" open="false" node1="7" node2="0"/>
                <iidm:switch id="load_2W_MV_LV_LV_BREAKER" kind="BREAKER" retained="true" open="false" node1="8" node2="9"/>
                <iidm:switch id="load_2W_MV_LV_LV_DISCONNECTOR_9_0" kind="DISCONNECTOR" open="false" node1="9" node2="0"/>
                <iidm:bus v="61.134419343665606" angle="-4.349406067781851" nodes="0,1,2,3,4,5,6,7,8,9"/>
            </iidm:nodeBreakerTopology>
            <iidm:load id="load_2W_MV_LV_LV" name="LV interconnection load" loadType="UNDEFINED" p0="30.0" q0="10.0" node="8" p="30.0" q="10.0"/>
        </iidm:voltageLevel>
        <iidm:twoWindingsTransformer id="2W_MV_LV" r="0.005" x="0.15" ratedU1="110.0" ratedU2="63.0" voltageLevelId1="VL_2W_MV_LV_MV" node1="10" voltageLevelId2="VL_2W_MV_LV_LV" node2="6" p1="45.67035888406118" q1="22.77464217755813" p2="-45.666881339124224" q2="-22.670315829487727" selectedOperationalLimitsGroupIds1="DEFAULT">
            <iidm:operationalLimitsGroup1 id="DEFAULT">
                <iidm:currentLimits permanentLimit="300.0"/>
            </iidm:operationalLimitsGroup1>
        </iidm:twoWindingsTransformer>
    </iidm:substation>
    <iidm:substation id="S_LV_load" name="S_LV_load" country="BE" tso="TSO">
        <iidm:voltageLevel id="VL_LV_load" name="VL_LV_load" nominalV="63.0" topologyKind="NODE_BREAKER">
            <iidm:nodeBreakerTopology>
                <iidm:busbarSection id="VL_LV_load_1_1" node="0"/>
                <iidm:switch id="L12_BREAKER" kind="BREAKER" retained="true" open="false" node1="1" node2="2"/>
                <iidm:switch id="L12_DISCONNECTOR_2_0" kind="DISCONNECTOR" open="false" node1="2" node2="0"/>
                <iidm:switch id="L22_BREAKER" kind="BREAKER" retained="true" open="false" node1="3" node2="4"/>
                <iidm:switch id="L22_DISCONNECTOR_4_0" kind="DISCONNECTOR" open="false" node1="4" node2="0"/>
                <iidm:switch id="load_LV_load_BREAKER" kind="BREAKER" retained="true" open="false" node1="5" node2="6"/>
                <iidm:switch id="load_LV_load_DISCONNECTOR_6_0" kind="DISCONNECTOR" open="false" node1="6" node2="0"/>
                <iidm:switch id="BAT_LV_BREAKER" kind="BREAKER" retained="true" open="false" node1="7" node2="8"/>
                <iidm:switch id="BAT_LV_DISCONNECTOR_8_0" kind="DISCONNECTOR" open="false" node1="8" node2="0"/>
                <iidm:bus v="56.790238731332785" angle="-7.175550608007625" nodes="0,1,2,3,4,5,6,7,8"/>
            </iidm:nodeBreakerTopology>
            <iidm:battery id="BAT_LV" name="LV battery" targetP="30.0" targetQ="0.0" minP="-60.0" maxP="60.0" node="7" p="-31.436270027349828" q="-0.0">
                <iidm:minMaxReactiveLimits minQ="-1.7976931348623157E308" maxQ="1.7976931348623157E308"/>
            </iidm:battery>
            <iidm:load id="load_LV_load" name="LV local load 1" loadType="UNDEFINED" p0="90.0" q0="30.0" node="5" p="90.0" q="30.0"/>
        </iidm:voltageLevel>
    </iidm:substation>
    <iidm:substation id="S_MV_load" name="S_MV_load" country="BE" tso="TSO">
        <iidm:voltageLevel id="VL_MV_load" name="VL_MV_load" nominalV="110.0" topologyKind="NODE_BREAKER">
            <iidm:nodeBreakerTopology>
                <iidm:busbarSection id="VL_MV_load_1_1" node="0"/>
                <iidm:busbarSection id="VL_MV_load_2_1" node="1"/>
                <iidm:busbarSection id="VL_MV_load_1_2" node="2"/>
                <iidm:busbarSection id="VL_MV_load_2_2" node="3"/>
                <iidm:switch id="L61_BREAKER" kind="BREAKER" retained="true" open="false" node1="8" node2="9"/>
                <iidm:switch id="L61_DISCONNECTOR_9_0" kind="DISCONNECTOR" open="false" node1="9" node2="0"/>
                <iidm:switch id="VL_MV_load_BREAKER" kind="BREAKER" retained="true" open="false" node1="4" node2="5"/>
                <iidm:switch id="VL_MV_load_DISCONNECTOR_4_0" kind="DISCONNECTOR" open="false" node1="4" node2="0"/>
                <iidm:switch id="VL_MV_load_DISCONNECTOR_5_1" kind="DISCONNECTOR" open="false" node1="5" node2="1"/>
                <iidm:switch id="VL_MV_load_BREAKER#0" kind="BREAKER" retained="true" open="false" node1="6" node2="7"/>
                <iidm:switch id="VL_MV_load_DISCONNECTOR_6_2" kind="DISCONNECTOR" open="false" node1="6" node2="2"/>
                <iidm:switch id="VL_MV_load_DISCONNECTOR_6_3" kind="DISCONNECTOR" open="true" node1="6" node2="3"/>
                <iidm:switch id="VL_MV_load_DISCONNECTOR_7_0" kind="DISCONNECTOR" open="false" node1="7" node2="0"/>
                <iidm:switch id="VL_MV_load_DISCONNECTOR_7_1" kind="DISCONNECTOR" open="true" node1="7" node2="1"/>
                <iidm:switch id="L61_DISCONNECTOR_9_1" kind="DISCONNECTOR" open="true" node1="9" node2="1"/>
                <iidm:switch id="L101_BREAKER" kind="BREAKER" retained="true" open="false" node1="10" node2="11"/>
                <iidm:switch id="L101_DISCONNECTOR_11_0" kind="DISCONNECTOR" open="false" node1="11" node2="0"/>
                <iidm:switch id="L101_DISCONNECTOR_11_1" kind="DISCONNECTOR" open="true" node1="11" node2="1"/>
                <iidm:switch id="L151_BREAKER" kind="BREAKER" retained="true" open="false" node1="12" node2="13"/>
                <iidm:switch id="L151_DISCONNECTOR_13_0" kind="DISCONNECTOR" open="false" node1="13" node2="0"/>
                <iidm:switch id="L151_DISCONNECTOR_13_1" kind="DISCONNECTOR" open="true" node1="13" node2="1"/>
                <iidm:switch id="LINE_out_of_service_BREAKER1" name="LINE_out_of_service_BREAKER" kind="BREAKER" open="true" node1="3" node2="50"/>
                <iidm:switch id="MV_load_PST_no_limit1_BREAKER" kind="BREAKER" retained="true" open="false" node1="51" node2="53"/>
                <iidm:switch id="MV_load_PST_no_limit1_DISCONNECTOR_53_2" kind="DISCONNECTOR" open="false" node1="53" node2="2"/>
                <iidm:switch id="MV_load_PST_no_limit1_DISCONNECTOR_53_3" kind="DISCONNECTOR" open="true" node1="53" node2="3"/>
                <iidm:switch id="MV_load_PST_no_limit2_BREAKER" kind="BREAKER" retained="true" open="false" node1="52" node2="54"/>
                <iidm:switch id="MV_load_PST_no_limit2_DISCONNECTOR_54_2" kind="DISCONNECTOR" open="true" node1="54" node2="2"/>
                <iidm:switch id="MV_load_PST_no_limit2_DISCONNECTOR_54_3" kind="DISCONNECTOR" open="false" node1="54" node2="3"/>
                <iidm:switch id="load_MV_load_BREAKER" kind="BREAKER" retained="true" open="false" node1="55" node2="56"/>
                <iidm:switch id="load_MV_load_DISCONNECTOR_56_0" kind="DISCONNECTOR" open="false" node1="56" node2="0"/>
                <iidm:switch id="load_MV_load_DISCONNECTOR_56_1" kind="DISCONNECTOR" open="true" node1="56" node2="1"/>
                <iidm:bus v="102.4518359994383" angle="-9.270706723555836" nodes="0,1,2,4,5,6,7,8,9,10,11,12,13,51,53,55,56"/>
                <iidm:bus v="102.30242707193912" angle="-20.062373390222504" nodes="3,52,54"/>
            </iidm:nodeBreakerTopology>
            <iidm:load id="load_MV_load" name="MV local load" loadType="UNDEFINED" p0="150.0" q0="60.0" node="55" p="150.0" q="60.0"/>
        </iidm:voltageLevel>
        <iidm:twoWindingsTransformer id="MV_load_PST_no_limit" r="0.1" x="12.0" g="5.0E-7" b="1.0E-6" ratedU1="110.0" ratedU2="110.0" voltageLevelId1="VL_MV_load" node1="51" voltageLevelId2="VL_MV_load" node2="52" p1="0.005232893292415702" q1="-0.010465786584885612" p2="1.1615983978326417E-14" q2="0.0">
            <iidm:phaseTapChanger regulating="false" lowTapPosition="-30" tapPosition="-20" solvedTapPosition="-20" targetDeadband="2.0" loadTapChangingCapabilities="true" regulationMode="CURRENT_LIMITER">
                <iidm:step r="15.0" x="20.0" rho="0.9975" alpha="-21.0"/>
                <iidm:step r="14.166666666666666" x="18.958333333333332" rho="0.9976041666666667" alpha="-19.979166666666668"/>
                <iidm:step r="13.333333333333334" x="17.916666666666668" rho="0.9977083333333334" alpha="-18.958333333333332"/>
                <iidm:step r="12.5" x="16.875" rho="0.9978125" alpha="-17.9375"/>
                <iidm:step r="11.666666666666666" x="15.833333333333332" rho="0.9979166666666667" alpha="-16.916666666666668"/>
                <iidm:step r="10.833333333333332" x="14.791666666666666" rho="0.9980208333333334" alpha="-15.895833333333334"/>
                <iidm:step r="10.0" x="13.75" rho="0.998125" alpha="-14.875"/>
                <iidm:step r="9.166666666666666" x="12.708333333333332" rho="0.9982291666666667" alpha="-13.854166666666668"/>
                <iidm:step r="8.333333333333332" x="11.666666666666666" rho="0.9983333333333334" alpha="-12.833333333333334"/>
                <iidm:step r="7.5" x="10.625" rho="0.9984375000000001" alpha="-11.8125"/>
                <iidm:step r="6.666666666666666" x="9.583333333333332" rho="0.9985416666666667" alpha="-10.791666666666668"/>
                <iidm:step r="5.833333333333332" x="8.541666666666666" rho="0.9986458333333333" alpha="-9.770833333333334"/>
                <iidm:step r="5.0" x="7.5" rho="0.99875" alpha="-8.75"/>
                <iidm:step r="4.166666666666666" x="6.458333333333332" rho="0.9988541666666667" alpha="-7.729166666666668"/>
                <iidm:step r="3.333333333333332" x="5.416666666666666" rho="0.9989583333333334" alpha="-6.708333333333334"/>
                <iidm:step r="2.5" x="4.374999999999998" rho="0.9990625" alpha="-5.687500000000002"/>
                <iidm:step r="1.666666666666666" x="3.333333333333332" rho="0.9991666666666666" alpha="-4.666666666666668"/>
                <iidm:step r="0.8333333333333321" x="2.2916666666666643" rho="0.9992708333333333" alpha="-3.6458333333333357"/>
                <iidm:step x="1.25" rho="0.999375" alpha="-2.625"/>
                <iidm:step r="0.8333333333333339" x="0.20833333333333215" rho="0.9994791666666667" alpha="-1.6041666666666679"/>
                <iidm:step r="1.6666666666666679" x="0.8333333333333357" rho="0.9995833333333334" alpha="-0.5833333333333357"/>
                <iidm:step r="2.5" x="1.875" rho="0.9996875000000001" alpha="0.4375"/>
                <iidm:step r="3.3333333333333357" x="2.916666666666668" rho="0.9997916666666666" alpha="1.4583333333333321"/>
                <iidm:step r="4.166666666666668" x="3.9583333333333357" rho="0.9998958333333333" alpha="2.4791666666666643"/>
                <iidm:step r="5.0" x="5.0" rho="1.0" alpha="3.5"/>
                <iidm:step r="5.833333333333336" x="6.041666666666668" rho="1.0001041666666666" alpha="4.520833333333332"/>
                <iidm:step r="6.666666666666668" x="7.083333333333336" rho="1.0002083333333334" alpha="5.541666666666664"/>
                <iidm:step r="7.5" x="8.125000000000004" rho="1.0003125" alpha="6.5624999999999964"/>
                <iidm:step r="8.333333333333336" x="9.166666666666668" rho="1.0004166666666667" alpha="7.583333333333332"/>
                <iidm:step r="9.166666666666668" x="10.208333333333336" rho="1.0005208333333333" alpha="8.604166666666664"/>
                <iidm:step r="10.0" x="11.250000000000004" rho="1.0006249999999999" alpha="9.624999999999996"/>
                <iidm:step r="10.833333333333336" x="12.291666666666671" rho="1.0007291666666667" alpha="10.645833333333332"/>
                <iidm:step r="11.666666666666668" x="13.333333333333336" rho="1.0008333333333332" alpha="11.666666666666664"/>
                <iidm:step r="12.5" x="14.375" rho="1.0009375" alpha="12.6875"/>
                <iidm:step r="13.333333333333336" x="15.416666666666671" rho="1.0010416666666666" alpha="13.708333333333329"/>
                <iidm:step r="14.166666666666668" x="16.458333333333336" rho="1.0011458333333334" alpha="14.729166666666664"/>
                <iidm:step r="15.0" x="17.5" rho="1.00125" alpha="15.75"/>
                <iidm:step r="15.833333333333336" x="18.54166666666667" rho="1.0013541666666665" alpha="16.77083333333333"/>
                <iidm:step r="16.666666666666668" x="19.583333333333336" rho="1.0014583333333333" alpha="17.791666666666664"/>
                <iidm:step r="17.5" x="20.625" rho="1.0015625" alpha="18.8125"/>
                <iidm:step r="18.333333333333336" x="21.66666666666667" rho="1.0016666666666667" alpha="19.83333333333333"/>
                <iidm:step r="19.16666666666667" x="22.708333333333336" rho="1.0017708333333333" alpha="20.854166666666664"/>
                <iidm:step r="20.0" x="23.75" rho="1.001875" alpha="21.875"/>
                <iidm:step r="20.833333333333336" x="24.79166666666667" rho="1.0019791666666666" alpha="22.89583333333333"/>
                <iidm:step r="21.66666666666667" x="25.833333333333336" rho="1.0020833333333332" alpha="23.916666666666664"/>
                <iidm:step r="22.5" x="26.875" rho="1.0021875" alpha="24.9375"/>
                <iidm:step r="23.333333333333336" x="27.91666666666667" rho="1.0022916666666666" alpha="25.95833333333333"/>
                <iidm:step r="24.16666666666667" x="28.958333333333336" rho="1.0023958333333334" alpha="26.979166666666664"/>
                <iidm:step r="25.0" x="30.0" rho="1.0025" alpha="28.0"/>
            </iidm:phaseTapChanger>
        </iidm:twoWindingsTransformer>
    </iidm:substation>
    <iidm:substation id="S_MV_svc" name="S_MV_svc" country="BE" tso="TSO">
        <iidm:voltageLevel id="VL_MV_svc" name="VL_MV_svc" nominalV="110.0" topologyKind="NODE_BREAKER">
            <iidm:nodeBreakerTopology>
                <iidm:busbarSection id="VL_MV_svc_1_1" node="0"/>
                <iidm:busbarSection id="VL_MV_svc_2_1" node="1"/>
                <iidm:switch id="VL_MV_svc_BREAKER" kind="BREAKER" retained="true" open="false" node1="2" node2="3"/>
                <iidm:switch id="VL_MV_svc_DISCONNECTOR_2_0" kind="DISCONNECTOR" open="false" node1="2" node2="0"/>
                <iidm:switch id="VL_MV_svc_DISCONNECTOR_3_1" kind="DISCONNECTOR" open="false" node1="3" node2="1"/>
                <iidm:switch id="L31_BREAKER" kind="BREAKER" retained="true" open="false" node1="4" node2="5"/>
                <iidm:switch id="L31_DISCONNECTOR_5_0" kind="DISCONNECTOR" open="false" node1="5" node2="0"/>
                <iidm:switch id="L31_DISCONNECTOR_5_1" kind="DISCONNECTOR" open="true" node1="5" node2="1"/>
                <iidm:switch id="L41_BREAKER" kind="BREAKER" retained="true" open="false" node1="6" node2="7"/>
                <iidm:switch id="L41_DISCONNECTOR_7_0" kind="DISCONNECTOR" open="false" node1="7" node2="0"/>
                <iidm:switch id="L41_DISCONNECTOR_7_1" kind="DISCONNECTOR" open="true" node1="7" node2="1"/>
                <iidm:switch id="L131_BREAKER" kind="BREAKER" retained="true" open="false" node1="8" node2="9"/>
                <iidm:switch id="L131_DISCONNECTOR_9_0" kind="DISCONNECTOR" open="false" node1="9" node2="0"/>
                <iidm:switch id="L131_DISCONNECTOR_9_1" kind="DISCONNECTOR" open="true" node1="9" node2="1"/>
                <iidm:switch id="L141_BREAKER" kind="BREAKER" retained="true" open="false" node1="10" node2="11"/>
                <iidm:switch id="L141_DISCONNECTOR_11_0" kind="DISCONNECTOR" open="false" node1="11" node2="0"/>
                <iidm:switch id="L141_DISCONNECTOR_11_1" kind="DISCONNECTOR" open="true" node1="11" node2="1"/>
                <iidm:switch id="GEN_MV_BREAKER" kind="BREAKER" retained="true" open="false" node1="12" node2="13"/>
                <iidm:switch id="GEN_MV_DISCONNECTOR_13_0" kind="DISCONNECTOR" open="false" node1="13" node2="0"/>
                <iidm:switch id="GEN_MV_DISCONNECTOR_13_1" kind="DISCONNECTOR" open="true" node1="13" node2="1"/>
                <iidm:switch id="load_VL_MV_svc_BREAKER" kind="BREAKER" retained="true" open="false" node1="14" node2="15"/>
                <iidm:switch id="load_VL_MV_svc_DISCONNECTOR_15_0" kind="DISCONNECTOR" open="false" node1="15" node2="0"/>
                <iidm:switch id="load_VL_MV_svc_DISCONNECTOR_15_1" kind="DISCONNECTOR" open="true" node1="15" node2="1"/>
                <iidm:switch id="SHUNT_MV_svc_BREAKER" kind="BREAKER" retained="true" open="false" node1="16" node2="17"/>
                <iidm:switch id="SHUNT_MV_svc_DISCONNECTOR_17_0" kind="DISCONNECTOR" open="false" node1="17" node2="0"/>
                <iidm:switch id="SHUNT_MV_svc_DISCONNECTOR_17_1" kind="DISCONNECTOR" open="true" node1="17" node2="1"/>
                <iidm:switch id="STATCOM_HV_BREAKER" kind="BREAKER" retained="true" open="false" node1="18" node2="19"/>
                <iidm:switch id="STATCOM_HV_DISCONNECTOR_19_0" kind="DISCONNECTOR" open="false" node1="19" node2="0"/>
                <iidm:switch id="STATCOM_HV_DISCONNECTOR_19_1" kind="DISCONNECTOR" open="true" node1="19" node2="1"/>
                <iidm:bus v="110.0" angle="-4.956598626855497" nodes="0,1,2,3,4,5,6,7,8,9,10,11,12,13,14,15,16,17,18,19"/>
            </iidm:nodeBreakerTopology>
            <iidm:generator id="GEN_MV" name="MV local generator" energySource="THERMAL" minP="0.0" maxP="80.0" voltageRegulatorOn="true" targetP="30.0" targetV="110.0" node="12" p="-31.915026703133098" q="-201.57908567232442">
                <iidm:minMaxReactiveLimits minQ="-1.7976931348623157E308" maxQ="1.7976931348623157E308"/>
            </iidm:generator>
            <iidm:load id="load_VL_MV_svc" name="LV local load 2" loadType="UNDEFINED" p0="200.0" q0="200.0" node="14" p="200.0" q="200.0"/>
            <iidm:shuntCompensator id="SHUNT_MV_svc" sectionCount="1" solvedSectionCount="1" voltageRegulatorOn="false" targetV="110.0" targetDeadband="2.0" node="16" p="0.0" q="-24.2">
                <iidm:shuntLinearModel bPerSection="0.002" gPerSection="0.0" maximumSectionCount="1"/>
            </iidm:shuntCompensator>
            <iidm:staticVarCompensator id="STATCOM_HV" name="HV STATCOM" bMin="-0.01" bMax="0.01" voltageSetpoint="110.0" regulationMode="VOLTAGE" regulating="true" node="18" p="0.0" q="-121.00000000000001"/>
        </iidm:voltageLevel>
    </iidm:substation>
    <iidm:substation id="S_MV" name="S_MV" country="BE" tso="TSO">
        <iidm:voltageLevel id="VL_MV" name="VL_MV" nominalV="110.0" topologyKind="NODE_BREAKER">
            <iidm:nodeBreakerTopology>
                <iidm:busbarSection id="VL_MV_1_1" node="0"/>
                <iidm:busbarSection id="VL_MV_2_1" node="1"/>
                <iidm:busbarSection id="VL_MV_1_2" node="2"/>
                <iidm:busbarSection id="VL_MV_2_2" node="3"/>
                <iidm:switch id="VL_MV_DISCONNECTOR_0_2" kind="DISCONNECTOR" open="true" node1="0" node2="2"/>
                <iidm:switch id="VL_MV_DISCONNECTOR_1_3" kind="DISCONNECTOR" open="false" node1="1" node2="3"/>
                <iidm:switch id="VL_MV_BREAKER" kind="BREAKER" retained="true" open="false" node1="4" node2="5"/>
                <iidm:switch id="VL_MV_DISCONNECTOR_4_0" kind="DISCONNECTOR" open="false" node1="4" node2="0"/>
                <iidm:switch id="VL_MV_DISCONNECTOR_5_1" kind="DISCONNECTOR" open="false" node1="5" node2="1"/>
                <iidm:switch id="VL_MV_BREAKER#0" kind="BREAKER" retained="true" open="false" node1="6" node2="7"/>
                <iidm:switch id="VL_MV_DISCONNECTOR_6_2" kind="DISCONNECTOR" open="false" node1="6" node2="2"/>
                <iidm:switch id="VL_MV_DISCONNECTOR_7_3" kind="DISCONNECTOR" open="false" node1="7" node2="3"/>
                <iidm:switch id="VL_MV_BREAKER#1" kind="BREAKER" retained="true" open="false" node1="8" node2="9"/>
                <iidm:switch id="VL_MV_DISCONNECTOR_8_0" kind="DISCONNECTOR" open="false" node1="8" node2="0"/>
                <iidm:switch id="VL_MV_DISCONNECTOR_8_1" kind="DISCONNECTOR" open="true" node1="8" node2="1"/>
                <iidm:switch id="VL_MV_DISCONNECTOR_9_2" kind="DISCONNECTOR" open="false" node1="9" node2="2"/>
                <iidm:switch id="VL_MV_DISCONNECTOR_9_3" kind="DISCONNECTOR" open="true" node1="9" node2="3"/>
                <iidm:switch id="L62_BREAKER" kind="BREAKER" retained="true" open="false" node1="10" node2="11"/>
                <iidm:switch id="L62_DISCONNECTOR_11_2" kind="DISCONNECTOR" open="true" node1="11" node2="2"/>
                <iidm:switch id="L62_DISCONNECTOR_11_3" kind="DISCONNECTOR" open="false" node1="11" node2="3"/>
                <iidm:switch id="L72_BREAKER" kind="BREAKER" retained="true" open="false" node1="12" node2="13"/>
                <iidm:switch id="L72_DISCONNECTOR_13_0" kind="DISCONNECTOR" open="true" node1="13" node2="0"/>
                <iidm:switch id="L72_DISCONNECTOR_13_1" kind="DISCONNECTOR" open="false" node1="13" node2="1"/>
                <iidm:switch id="L111_BREAKER" kind="BREAKER" retained="true" open="false" node1="14" node2="15"/>
                <iidm:switch id="L111_DISCONNECTOR_15_0" kind="DISCONNECTOR" open="false" node1="15" node2="0"/>
                <iidm:switch id="L111_DISCONNECTOR_15_1" kind="DISCONNECTOR" open="true" node1="15" node2="1"/>
                <iidm:switch id="L121_BREAKER" kind="BREAKER" retained="true" open="false" node1="16" node2="17"/>
                <iidm:switch id="L121_DISCONNECTOR_17_2" kind="DISCONNECTOR" open="false" node1="17" node2="2"/>
                <iidm:switch id="L121_DISCONNECTOR_17_3" kind="DISCONNECTOR" open="true" node1="17" node2="3"/>
                <iidm:switch id="L142_BREAKER" kind="BREAKER" retained="true" open="false" node1="18" node2="19"/>
                <iidm:switch id="L142_DISCONNECTOR_19_0" kind="DISCONNECTOR" open="true" node1="19" node2="0"/>
                <iidm:switch id="L142_DISCONNECTOR_19_1" kind="DISCONNECTOR" open="false" node1="19" node2="1"/>
                <iidm:switch id="load_MV_BREAKER" kind="BREAKER" retained="true" open="false" node1="20" node2="21"/>
                <iidm:switch id="load_MV_DISCONNECTOR_21_2" kind="DISCONNECTOR" open="false" node1="21" node2="2"/>
                <iidm:switch id="load_MV_DISCONNECTOR_21_3" kind="DISCONNECTOR" open="true" node1="21" node2="3"/>
                <iidm:switch id="BAT_MV_BREAKER" kind="BREAKER" retained="true" open="false" node1="22" node2="23"/>
                <iidm:switch id="BAT_MV_DISCONNECTOR_23_0" kind="DISCONNECTOR" open="true" node1="23" node2="0"/>
                <iidm:switch id="BAT_MV_DISCONNECTOR_23_1" kind="DISCONNECTOR" open="false" node1="23" node2="1"/>
                <iidm:switch id="SHUNT_MV_BREAKER" kind="BREAKER" retained="true" open="false" node1="24" node2="25"/>
                <iidm:switch id="SHUNT_MV_DISCONNECTOR_25_0" kind="DISCONNECTOR" open="false" node1="25" node2="0"/>
                <iidm:switch id="SHUNT_MV_DISCONNECTOR_25_1" kind="DISCONNECTOR" open="true" node1="25" node2="1"/>
                <iidm:bus v="104.93265304568429" angle="-8.857046811426322" nodes="0,1,2,3,4,5,6,7,8,9,10,11,12,13,14,15,16,17,18,19,20,21,22,23,24,25"/>
            </iidm:nodeBreakerTopology>
            <iidm:battery id="BAT_MV" name="MV battery" targetP="-20.0" targetQ="0.0" minP="-60.0" maxP="60.0" node="22" p="18.563729972650176" q="-0.0">
                <iidm:minMaxReactiveLimits minQ="-1.7976931348623157E308" maxQ="1.7976931348623157E308"/>
            </iidm:battery>
            <iidm:load id="load_MV" name="MV interconnection load" loadType="UNDEFINED" p0="80.0" q0="20.0" node="20" p="80.0" q="20.0"/>
            <iidm:shuntCompensator id="SHUNT_MV" sectionCount="1" solvedSectionCount="1" voltageRegulatorOn="false" targetV="110.0" targetDeadband="2.0" node="24" p="0.0" q="-13.213034010247148">
                <iidm:shuntLinearModel bPerSection="0.0012" gPerSection="0.0" maximumSectionCount="1"/>
            </iidm:shuntCompensator>
        </iidm:voltageLevel>
    </iidm:substation>
    <iidm:substation id="S_2W_MV_HV" name="S_2W_MV_HV" country="BE" tso="TSO">
        <iidm:voltageLevel id="VL_2W_MV_HV_MV" name="VL_2W_MV_HV_MV" nominalV="110.0" topologyKind="NODE_BREAKER">
            <iidm:nodeBreakerTopology>
                <iidm:busbarSection id="VL_2W_MV_HV_MV_1_1" node="0"/>
                <iidm:busbarSection id="VL_2W_MV_HV_MV_2_1" node="1"/>
                <iidm:busbarSection id="VL_2W_MV_HV_MV_3_1" node="2"/>
                <iidm:switch id="VL_2W_MV_HV_MV_BREAKER" kind="BREAKER" retained="true" open="false" node1="3" node2="4"/>
                <iidm:switch id="VL_2W_MV_HV_MV_DISCONNECTOR_3_0" kind="DISCONNECTOR" open="false" node1="3" node2="0"/>
                <iidm:switch id="VL_2W_MV_HV_MV_DISCONNECTOR_3_1" kind="DISCONNECTOR" open="true" node1="3" node2="1"/>
                <iidm:switch id="VL_2W_MV_HV_MV_DISCONNECTOR_4_1" kind="DISCONNECTOR" open="false" node1="4" node2="1"/>
                <iidm:switch id="VL_2W_MV_HV_MV_DISCONNECTOR_4_2" kind="DISCONNECTOR" open="true" node1="4" node2="2"/>
                <iidm:switch id="L42_BREAKER" kind="BREAKER" retained="true" open="false" node1="5" node2="6"/>
                <iidm:switch id="L42_DISCONNECTOR_6_0" kind="DISCONNECTOR" open="false" node1="6" node2="0"/>
                <iidm:switch id="L42_DISCONNECTOR_6_1" kind="DISCONNECTOR" open="true" node1="6" node2="1"/>
                <iidm:switch id="L42_DISCONNECTOR_6_2" kind="DISCONNECTOR" open="true" node1="6" node2="2"/>
                <iidm:switch id="L71_BREAKER" kind="BREAKER" retained="true" open="false" node1="7" node2="8"/>
                <iidm:switch id="L71_DISCONNECTOR_8_0" kind="DISCONNECTOR" open="true" node1="8" node2="0"/>
                <iidm:switch id="L71_DISCONNECTOR_8_1" kind="DISCONNECTOR" open="true" node1="8" node2="1"/>
                <iidm:switch id="L71_DISCONNECTOR_8_2" kind="DISCONNECTOR" open="false" node1="8" node2="2"/>
                <iidm:switch id="L82_BREAKER" kind="BREAKER" retained="true" open="false" node1="9" node2="10"/>
                <iidm:switch id="L82_DISCONNECTOR_10_0" kind="DISCONNECTOR" open="false" node1="10" node2="0"/>
                <iidm:switch id="L82_DISCONNECTOR_10_1" kind="DISCONNECTOR" open="true" node1="10" node2="1"/>
                <iidm:switch id="L82_DISCONNECTOR_10_2" kind="DISCONNECTOR" open="true" node1="10" node2="2"/>
                <iidm:switch id="L92_BREAKER" kind="BREAKER" retained="true" open="false" node1="11" node2="12"/>
                <iidm:switch id="L92_DISCONNECTOR_12_0" kind="DISCONNECTOR" open="true" node1="12" node2="0"/>
                <iidm:switch id="L92_DISCONNECTOR_12_1" kind="DISCONNECTOR" open="false" node1="12" node2="1"/>
                <iidm:switch id="L92_DISCONNECTOR_12_2" kind="DISCONNECTOR" open="true" node1="12" node2="2"/>
                <iidm:switch id="L152_BREAKER" kind="BREAKER" retained="true" open="false" node1="13" node2="14"/>
                <iidm:switch id="L152_DISCONNECTOR_14_0" kind="DISCONNECTOR" open="false" node1="14" node2="0"/>
                <iidm:switch id="L152_DISCONNECTOR_14_1" kind="DISCONNECTOR" open="true" node1="14" node2="1"/>
                <iidm:switch id="L152_DISCONNECTOR_14_2" kind="DISCONNECTOR" open="true" node1="14" node2="2"/>
                <iidm:switch id="LINE_out_of_service_BREAKER2" name="LINE_out_of_service_BREAKER" kind="BREAKER" open="true" node1="1" node2="50"/>
                <iidm:switch id="2W_MV_HV_PST1_BREAKER" kind="BREAKER" retained="true" open="false" node1="51" node2="53"/>
                <iidm:switch id="2W_MV_HV_PST1_DISCONNECTOR_53_0" kind="DISCONNECTOR" open="false" node1="53" node2="0"/>
                <iidm:switch id="2W_MV_HV_PST1_DISCONNECTOR_53_1" kind="DISCONNECTOR" open="true" node1="53" node2="1"/>
                <iidm:switch id="2W_MV_HV_PST1_DISCONNECTOR_53_2" kind="DISCONNECTOR" open="true" node1="53" node2="2"/>
                <iidm:switch id="2W_MV_HV_PST2_BREAKER" kind="BREAKER" retained="true" open="false" node1="52" node2="54"/>
                <iidm:switch id="2W_MV_HV_PST2_DISCONNECTOR_54_0" kind="DISCONNECTOR" open="true" node1="54" node2="0"/>
                <iidm:switch id="2W_MV_HV_PST2_DISCONNECTOR_54_1" kind="DISCONNECTOR" open="true" node1="54" node2="1"/>
                <iidm:switch id="2W_MV_HV_PST2_DISCONNECTOR_54_2" kind="DISCONNECTOR" open="false" node1="54" node2="2"/>
                <iidm:bus v="109.06886485812329" angle="-1.9624797462123902" nodes="0,1,3,4,5,6,9,10,11,12,13,14,51,53"/>
                <iidm:bus v="105.35979935326893" angle="-10.419230931362964" nodes="2,7,8,52,54"/>
            </iidm:nodeBreakerTopology>
        </iidm:voltageLevel>
        <iidm:voltageLevel id="VL_2W_MV_HV_MV_INT" name="VL_2W_MV_HV_MV_INT" nominalV="110.0" topologyKind="NODE_BREAKER">
            <iidm:nodeBreakerTopology>
                <iidm:busbarSection id="VL_2W_MV_HV_MV_INT_1_1" node="0"/>
                <iidm:busbarSection id="VL_2W_MV_HV_MV_INT_2_1" node="1"/>
                <iidm:switch id="L81_BREAKER" kind="BREAKER" retained="true" open="false" node1="2" node2="3"/>
                <iidm:switch id="L81_DISCONNECTOR_3_0" kind="DISCONNECTOR" open="false" node1="3" node2="0"/>
                <iidm:switch id="L91_BREAKER" kind="BREAKER" retained="true" open="false" node1="4" node2="5"/>
                <iidm:switch id="L91_DISCONNECTOR_5_1" kind="DISCONNECTOR" open="false" node1="5" node2="1"/>
                <iidm:switch id="2W_MV_HV_12_BREAKER" kind="BREAKER" retained="true" open="false" node1="6" node2="7"/>
                <iidm:switch id="2W_MV_HV_12_DISCONNECTOR_7_0" kind="DISCONNECTOR" open="false" node1="7" node2="0"/>
                <iidm:switch id="2W_MV_HV_22_BREAKER" kind="BREAKER" retained="true" open="false" node1="8" node2="9"/>
                <iidm:switch id="2W_MV_HV_22_DISCONNECTOR_9_1" kind="DISCONNECTOR" open="false" node1="9" node2="1"/>
                <iidm:bus v="110.16131303636854" angle="-0.39028067833833835" nodes="0,2,3,6,7"/>
                <iidm:bus v="110.16131303636854" angle="-0.39028067833833835" nodes="1,4,5,8,9"/>
            </iidm:nodeBreakerTopology>
        </iidm:voltageLevel>
        <iidm:voltageLevel id="VL_2W_MV_HV_HV" name="VL_2W_MV_HV_HV" nominalV="380.0" topologyKind="NODE_BREAKER">
            <iidm:nodeBreakerTopology>
                <iidm:busbarSection id="VL_2W_MV_HV_HV_1_1" node="0"/>
                <iidm:busbarSection id="VL_2W_MV_HV_HV_2_1" node="1"/>
                <iidm:busbarSection id="VL_2W_MV_HV_HV_1_2" node="2"/>
                <iidm:busbarSection id="VL_2W_MV_HV_HV_2_2" node="3"/>
                <iidm:switch id="VL_2W_MV_HV_HV_DISCONNECTOR_0_4" kind="DISCONNECTOR" open="false" node1="0" node2="4"/>
                <iidm:switch id="VL_2W_MV_HV_HV_BREAKER_1_1" kind="BREAKER" retained="true" open="false" node1="4" node2="5"/>
                <iidm:switch id="VL_2W_MV_HV_HV_DISCONNECTOR_5_2" kind="DISCONNECTOR" open="false" node1="5" node2="2"/>
                <iidm:switch id="VL_2W_MV_HV_HV_DISCONNECTOR_1_6" kind="DISCONNECTOR" open="false" node1="1" node2="6"/>
                <iidm:switch id="VL_2W_MV_HV_HV_BREAKER_2_1" kind="BREAKER" retained="true" open="false" node1="6" node2="7"/>
                <iidm:switch id="VL_2W_MV_HV_HV_DISCONNECTOR_7_3" kind="DISCONNECTOR" open="false" node1="7" node2="3"/>
                <iidm:switch id="VL_2W_MV_HV_HV_BREAKER" kind="BREAKER" retained="true" open="false" node1="8" node2="9"/>
                <iidm:switch id="VL_2W_MV_HV_HV_DISCONNECTOR_8_0" kind="DISCONNECTOR" open="false" node1="8" node2="0"/>
                <iidm:switch id="VL_2W_MV_HV_HV_DISCONNECTOR_9_1" kind="DISCONNECTOR" open="false" node1="9" node2="1"/>
                <iidm:switch id="VL_2W_MV_HV_HV_BREAKER#0" kind="BREAKER" retained="true" open="false" node1="10" node2="11"/>
                <iidm:switch id="VL_2W_MV_HV_HV_DISCONNECTOR_10_2" kind="DISCONNECTOR" open="false" node1="10" node2="2"/>
                <iidm:switch id="VL_2W_MV_HV_HV_DISCONNECTOR_11_3" kind="DISCONNECTOR" open="false" node1="11" node2="3"/>
                <iidm:switch id="L181_BREAKER" kind="BREAKER" retained="true" open="false" node1="12" node2="13"/>
                <iidm:switch id="L181_DISCONNECTOR_13_2" kind="DISCONNECTOR" open="false" node1="13" node2="2"/>
                <iidm:switch id="L181_DISCONNECTOR_13_3" kind="DISCONNECTOR" open="true" node1="13" node2="3"/>
                <iidm:switch id="L191_BREAKER" kind="BREAKER" retained="true" open="false" node1="14" node2="15"/>
                <iidm:switch id="L191_DISCONNECTOR_15_2" kind="DISCONNECTOR" open="true" node1="15" node2="2"/>
                <iidm:switch id="L191_DISCONNECTOR_15_3" kind="DISCONNECTOR" open="false" node1="15" node2="3"/>
                <iidm:switch id="L221_BREAKER" kind="BREAKER" retained="true" open="false" node1="16" node2="17"/>
                <iidm:switch id="L221_DISCONNECTOR_17_0" kind="DISCONNECTOR" open="false" node1="17" node2="0"/>
                <iidm:switch id="L221_DISCONNECTOR_17_1" kind="DISCONNECTOR" open="true" node1="17" node2="1"/>
                <iidm:switch id="L231_BREAKER" kind="BREAKER" retained="true" open="false" node1="18" node2="19"/>
                <iidm:switch id="L231_DISCONNECTOR_19_0" kind="DISCONNECTOR" open="true" node1="19" node2="0"/>
                <iidm:switch id="L231_DISCONNECTOR_19_1" kind="DISCONNECTOR" open="false" node1="19" node2="1"/>
                <iidm:switch id="2W_MV_HV_11_BREAKER" kind="BREAKER" retained="true" open="false" node1="20" node2="21"/>
                <iidm:switch id="2W_MV_HV_11_DISCONNECTOR_21_2" kind="DISCONNECTOR" open="false" node1="21" node2="2"/>
                <iidm:switch id="2W_MV_HV_11_DISCONNECTOR_21_3" kind="DISCONNECTOR" open="true" node1="21" node2="3"/>
                <iidm:switch id="2W_MV_HV_21_BREAKER" kind="BREAKER" retained="true" open="false" node1="22" node2="23"/>
                <iidm:switch id="2W_MV_HV_21_DISCONNECTOR_23_0" kind="DISCONNECTOR" open="true" node1="23" node2="0"/>
                <iidm:switch id="2W_MV_HV_21_DISCONNECTOR_23_1" kind="DISCONNECTOR" open="false" node1="23" node2="1"/>
                <iidm:switch id="LCC2_BREAKER" kind="BREAKER" retained="true" open="false" node1="24" node2="25"/>
                <iidm:switch id="LCC2_DISCONNECTOR_25_2" kind="DISCONNECTOR" open="false" node1="25" node2="2"/>
                <iidm:switch id="LCC2_DISCONNECTOR_25_3" kind="DISCONNECTOR" open="true" node1="25" node2="3"/>
                <iidm:switch id="Dangling_inbound_BREAKER" kind="BREAKER" retained="true" open="false" node1="26" node2="27"/>
                <iidm:switch id="Dangling_inbound_DISCONNECTOR_27_0" kind="DISCONNECTOR" open="false" node1="27" node2="0"/>
                <iidm:switch id="Dangling_inbound_DISCONNECTOR_27_1" kind="DISCONNECTOR" open="true" node1="27" node2="1"/>
                <iidm:bus v="380.5709548605177" angle="-0.35339078658343825" nodes="0,1,2,3,4,5,6,7,8,9,10,11,12,13,14,15,16,17,18,19,20,21,22,23,24,25,26,27"/>
            </iidm:nodeBreakerTopology>
            <iidm:boundaryLine id="Dangling_inbound" name="Dangling inbound" p0="-300.0" q0="-100.0" r="1.0" x="15.0" b="1.108E-6" node="26" p="-299.3256085807652" q="-90.04460506235975">
                <iidm:property name="v" value="385.0738100971025"/>
                <iidm:property name="angle" value="1.3671340976518502"/>
            </iidm:boundaryLine>
            <iidm:lccConverterStation id="LCC2" name="LCC station B" lossFactor="1.0" powerFactor="0.98" node="24" p="-73.46970268784625" q="14.918652092698064"/>
        </iidm:voltageLevel>
        <iidm:twoWindingsTransformer id="2W_MV_HV_PST" r="0.1" x="12.0" g="5.0E-7" b="1.0E-6" ratedU1="110.0" ratedU2="110.0" voltageLevelId1="VL_2W_MV_HV_MV" node1="51" voltageLevelId2="VL_2W_MV_HV_MV" node2="52" p1="-49.49244767353376" q1="30.8705820996636" p2="49.5292186627331" q2="-27.074235453473268" selectedOperationalLimitsGroupIds1="DEFAULT">
            <iidm:phaseTapChanger regulating="false" lowTapPosition="-30" tapPosition="-20" solvedTapPosition="-20" targetDeadband="2.0" loadTapChangingCapabilities="true" regulationMode="CURRENT_LIMITER">
                <iidm:step r="15.0" x="20.0" rho="0.9975" alpha="-21.0"/>
                <iidm:step r="14.245283018867925" x="19.056603773584907" rho="0.9975943396226415" alpha="-20.07547169811321"/>
                <iidm:step r="13.49056603773585" x="18.11320754716981" rho="0.997688679245283" alpha="-19.150943396226417"/>
                <iidm:step r="12.735849056603772" x="17.169811320754718" rho="0.9977830188679245" alpha="-18.22641509433962"/>
                <iidm:step r="11.981132075471699" x="16.22641509433962" rho="0.9978773584905661" alpha="-17.30188679245283"/>
                <iidm:step r="11.226415094339622" x="15.283018867924529" rho="0.9979716981132076" alpha="-16.37735849056604"/>
                <iidm:step r="10.471698113207546" x="14.339622641509434" rho="0.9980660377358491" alpha="-15.452830188679245"/>
                <iidm:step r="9.716981132075471" x="13.39622641509434" rho="0.9981603773584906" alpha="-14.528301886792452"/>
                <iidm:step r="8.962264150943396" x="12.452830188679245" rho="0.9982547169811321" alpha="-13.60377358490566"/>
                <iidm:step r="8.20754716981132" x="11.50943396226415" rho="0.9983490566037736" alpha="-12.679245283018869"/>
                <iidm:step r="7.452830188679245" x="10.566037735849056" rho="0.9984433962264151" alpha="-11.754716981132075"/>
                <iidm:step r="6.69811320754717" x="9.622641509433961" rho="0.9985377358490566" alpha="-10.830188679245282"/>
                <iidm:step r="5.943396226415093" x="8.679245283018869" rho="0.9986320754716982" alpha="-9.90566037735849"/>
                <iidm:step r="5.1886792452830175" x="7.735849056603774" rho="0.9987264150943397" alpha="-8.981132075471699"/>
                <iidm:step r="4.433962264150942" x="6.7924528301886795" rho="0.9988207547169812" alpha="-8.056603773584905"/>
                <iidm:step r="3.679245283018867" x="5.849056603773585" rho="0.9989150943396227" alpha="-7.132075471698112"/>
                <iidm:step r="2.9245283018867916" x="4.90566037735849" rho="0.9990094339622642" alpha="-6.2075471698113205"/>
                <iidm:step r="2.1698113207547163" x="3.9622641509433976" rho="0.9991037735849057" alpha="-5.283018867924529"/>
                <iidm:step r="1.415094339622641" x="3.018867924528301" rho="0.9991981132075471" alpha="-4.358490566037737"/>
                <iidm:step r="0.6603773584905657" x="2.0754716981132084" rho="0.9992924528301887" alpha="-3.433962264150942"/>
                <iidm:step r="0.09433962264150964" x="1.132075471698112" rho="0.9993867924528302" alpha="-2.5094339622641506"/>
                <iidm:step r="0.8490566037735867" x="0.18867924528301927" rho="0.9994811320754717" alpha="-1.584905660377359"/>
                <iidm:step r="1.6037735849056602" x="0.7547169811320771" rho="0.9995754716981132" alpha="-0.6603773584905639"/>
                <iidm:step r="2.3584905660377373" x="1.6981132075471699" rho="0.9996698113207547" alpha="0.2641509433962277"/>
                <iidm:step r="3.1132075471698144" x="2.6415094339622627" rho="0.9997641509433962" alpha="1.1886792452830193"/>
                <iidm:step r="3.867924528301888" x="3.584905660377359" rho="0.9998584905660377" alpha="2.113207547169811"/>
                <iidm:step r="4.622641509433965" x="4.528301886792452" rho="0.9999528301886792" alpha="3.0377358490566024"/>
                <iidm:step r="5.3773584905660385" x="5.471698113207548" rho="1.0000471698113207" alpha="3.9622641509433976"/>
                <iidm:step r="6.132075471698116" x="6.415094339622641" rho="1.0001415094339623" alpha="4.886792452830189"/>
                <iidm:step r="6.886792452830189" x="7.358490566037737" rho="1.0002358490566037" alpha="5.811320754716981"/>
                <iidm:step r="7.641509433962266" x="8.30188679245283" rho="1.0003301886792453" alpha="6.735849056603776"/>
                <iidm:step r="8.39622641509434" x="9.245283018867926" rho="1.0004245283018869" alpha="7.6603773584905674"/>
                <iidm:step r="9.150943396226417" x="10.18867924528302" rho="1.0005188679245283" alpha="8.584905660377359"/>
                <iidm:step r="9.905660377358494" x="11.132075471698112" rho="1.0006132075471699" alpha="9.50943396226415"/>
                <iidm:step r="10.660377358490567" x="12.075471698113205" rho="1.0007075471698113" alpha="10.433962264150942"/>
                <iidm:step r="11.415094339622645" x="13.018867924528301" rho="1.0008018867924529" alpha="11.358490566037737"/>
                <iidm:step r="12.169811320754718" x="13.962264150943398" rho="1.0008962264150942" alpha="12.283018867924525"/>
                <iidm:step r="12.924528301886795" x="14.905660377358494" rho="1.0009905660377358" alpha="13.20754716981132"/>
                <iidm:step r="13.679245283018869" x="15.849056603773583" rho="1.0010849056603774" alpha="14.132075471698116"/>
                <iidm:step r="14.433962264150946" x="16.79245283018868" rho="1.0011792452830188" alpha="15.056603773584904"/>
                <iidm:step r="15.18867924528302" x="17.735849056603776" rho="1.0012735849056604" alpha="15.981132075471699"/>
                <iidm:step r="15.943396226415096" x="18.679245283018865" rho="1.0013679245283018" alpha="16.905660377358494"/>
                <iidm:step r="16.698113207547173" x="19.62264150943396" rho="1.0014622641509434" alpha="17.830188679245282"/>
                <iidm:step r="17.45283018867925" x="20.566037735849058" rho="1.0015566037735848" alpha="18.754716981132077"/>
                <iidm:step r="18.20754716981132" x="21.509433962264154" rho="1.0016509433962264" alpha="19.679245283018872"/>
                <iidm:step r="18.962264150943398" x="22.452830188679243" rho="1.0017452830188678" alpha="20.60377358490566"/>
                <iidm:step r="19.716981132075475" x="23.39622641509434" rho="1.0018396226415094" alpha="21.528301886792455"/>
                <iidm:step r="20.47169811320755" x="24.339622641509436" rho="1.001933962264151" alpha="22.452830188679243"/>
                <iidm:step r="21.22641509433963" x="25.283018867924525" rho="1.0020283018867924" alpha="23.37735849056604"/>
                <iidm:step r="21.9811320754717" x="26.22641509433962" rho="1.002122641509434" alpha="24.301886792452834"/>
                <iidm:step r="22.735849056603776" x="27.169811320754718" rho="1.0022169811320754" alpha="25.22641509433962"/>
                <iidm:step r="23.490566037735853" x="28.113207547169814" rho="1.002311320754717" alpha="26.150943396226417"/>
                <iidm:step r="24.24528301886793" x="29.056603773584904" rho="1.0024056603773583" alpha="27.075471698113205"/>
                <iidm:step r="25.0" x="30.0" rho="1.0025" alpha="28.0"/>
            </iidm:phaseTapChanger>
            <iidm:operationalLimitsGroup1 id="DEFAULT">
                <iidm:currentLimits permanentLimit="400.0"/>
            </iidm:operationalLimitsGroup1>
        </iidm:twoWindingsTransformer>
        <iidm:twoWindingsTransformer id="2W_MV_HV_1" r="0.004" x="0.12" ratedU1="380.0" ratedU2="110.0" voltageLevelId1="VL_2W_MV_HV_HV" node1="20" voltageLevelId2="VL_2W_MV_HV_MV_INT" node2="6" p1="65.16401842676655" q1="1.4873765233130383" p2="-65.16261815461229" q2="-1.4453683586674486" selectedOperationalLimitsGroupIds1="DEFAULT">
            <iidm:operationalLimitsGroup1 id="DEFAULT">
                <iidm:currentLimits permanentLimit="100.0"/>
            </iidm:operationalLimitsGroup1>
        </iidm:twoWindingsTransformer>
        <iidm:twoWindingsTransformer id="2W_MV_HV_2" r="0.004" x="0.12" ratedU1="380.0" ratedU2="110.0" voltageLevelId1="VL_2W_MV_HV_HV" node1="22" voltageLevelId2="VL_2W_MV_HV_MV_INT" node2="8" p1="65.16401842676655" q1="1.4873765233130383" p2="-65.16261815461229" q2="-1.4453683586674486" selectedOperationalLimitsGroupIds1="DEFAULT">
            <iidm:operationalLimitsGroup1 id="DEFAULT">
                <iidm:currentLimits permanentLimit="100.0"/>
            </iidm:operationalLimitsGroup1>
        </iidm:twoWindingsTransformer>
    </iidm:substation>
    <iidm:substation id="S_HV_gen" name="S_2W_HV_gen" country="BE" tso="TSO">
        <iidm:voltageLevel id="VL_HV_gen" name="VL_HV_gen" nominalV="380.0" topologyKind="NODE_BREAKER">
            <iidm:nodeBreakerTopology>
                <iidm:busbarSection id="VL_HV_gen_1_1" node="0"/>
                <iidm:busbarSection id="VL_HV_gen_2_1" node="1"/>
                <iidm:switch id="VL_HV_gen_BREAKER" kind="BREAKER" retained="true" open="false" node1="2" node2="3"/>
                <iidm:switch id="VL_HV_gen_DISCONNECTOR_2_0" kind="DISCONNECTOR" open="false" node1="2" node2="0"/>
                <iidm:switch id="VL_HV_gen_DISCONNECTOR_3_1" kind="DISCONNECTOR" open="false" node1="3" node2="1"/>
                <iidm:switch id="VL_HV_gen_BREAKER#0" kind="BREAKER" retained="true" open="false" node1="4" node2="5"/>
                <iidm:switch id="VL_HV_gen_DISCONNECTOR_4_0" kind="DISCONNECTOR" open="false" node1="4" node2="0"/>
                <iidm:switch id="VL_HV_gen_DISCONNECTOR_5_1" kind="DISCONNECTOR" open="false" node1="5" node2="1"/>
                <iidm:switch id="L182_BREAKER" kind="BREAKER" retained="true" open="false" node1="6" node2="7"/>
                <iidm:switch id="L182_DISCONNECTOR_7_0" kind="DISCONNECTOR" open="false" node1="7" node2="0"/>
                <iidm:switch id="L182_DISCONNECTOR_7_1" kind="DISCONNECTOR" open="true" node1="7" node2="1"/>
                <iidm:switch id="L192_BREAKER" kind="BREAKER" retained="true" open="false" node1="8" node2="9"/>
...